/*--------------------------------*- C++ -*----------------------------------*\
| =========                 |                                                 |
| \\      /  F ield         | OpenFOAM: The Open Source CFD Toolbox           |
|  \\    /   O peration     | Version:  2.3.1                                 |
|   \\  /    A nd           | Web:      www.OpenFOAM.org                      |
|    \\/     M anipulation  |                                                 |
\*---------------------------------------------------------------------------*/
FoamFile
{
    version     2.0;
    format      ascii;
    class       polyBoundaryMesh;
    location    "constant/polyMesh";
    object      boundary;
}
// * * * * * * * * * * * * * * * * * * * * * * * * * * * * * * * * * * * * * //

7
(
    top
    {
        type            symmetryPlane;
        inGroups        1(symmetryPlane);
        nFaces          425;
        startFace       109568;
    }
    inlet
    {
        type            patch;
        nFaces          0;
        startFace       109993;
    }
    outlet
    {
        type            patch;
        nFaces          144;
        startFace       109993;
    }
    outletConnectMaster
    {
        type            wall;
        inGroups        1(wall);
        nFaces          44;
        startFace       110137;
    }
    walls
    {
        type            wall;
        inGroups        1(wall);
        nFaces          7043;
        startFace       110181;
    }
    procBoundary2to0
    {
        type            processor;
        inGroups        1(processor);
        nFaces          1260;
        startFace       117224;
        matchTolerance  0.0001;
        transform       unknown;
        myProcNo        2;
        neighbProcNo    0;
    }
    procBoundary2to3
    {
        type            processor;
        inGroups        1(processor);
        nFaces          1180;
        startFace       118484;
        matchTolerance  0.0001;
        transform       unknown;
        myProcNo        2;
        neighbProcNo    3;
    }
)

// ************************************************************************* //
