/*--------------------------------*- C++ -*----------------------------------*\
| =========                 |                                                 |
| \\      /  F ield         | OpenFOAM: The Open Source CFD Toolbox           |
|  \\    /   O peration     | Version:  2.3.1                                 |
|   \\  /    A nd           | Web:      www.OpenFOAM.org                      |
|    \\/     M anipulation  |                                                 |
\*---------------------------------------------------------------------------*/
FoamFile
{
    version     2.0;
    format      ascii;
    class       polyBoundaryMesh;
    location    "constant/polyMesh";
    object      boundary;
}
// * * * * * * * * * * * * * * * * * * * * * * * * * * * * * * * * * * * * * //

7
(
    top
    {
        type            symmetryPlane;
        inGroups        1(symmetryPlane);
        nFaces          454;
        startFace       110130;
    }
    inlet
    {
        type            patch;
        nFaces          0;
        startFace       110584;
    }
    outlet
    {
        type            patch;
        nFaces          0;
        startFace       110584;
    }
    outletConnectMaster
    {
        type            wall;
        inGroups        1(wall);
        nFaces          0;
        startFace       110584;
    }
    walls
    {
        type            wall;
        inGroups        1(wall);
        nFaces          6819;
        startFace       110584;
    }
    procBoundary1to0
    {
        type            processor;
        inGroups        1(processor);
        nFaces          1008;
        startFace       117403;
        matchTolerance  0.0001;
        transform       unknown;
        myProcNo        1;
        neighbProcNo    0;
    }
    procBoundary1to6
    {
        type            processor;
        inGroups        1(processor);
        nFaces          1031;
        startFace       118411;
        matchTolerance  0.0001;
        transform       unknown;
        myProcNo        1;
        neighbProcNo    6;
    }
)

// ************************************************************************* //
