/*--------------------------------*- C++ -*----------------------------------*\
| =========                 |                                                 |
| \\      /  F ield         | OpenFOAM: The Open Source CFD Toolbox           |
|  \\    /   O peration     | Version:  2.3.1                                 |
|   \\  /    A nd           | Web:      www.OpenFOAM.org                      |
|    \\/     M anipulation  |                                                 |
\*---------------------------------------------------------------------------*/
FoamFile
{
    version     2.0;
    format      ascii;
    class       polyBoundaryMesh;
    location    "constant/polyMesh";
    object      boundary;
}
// * * * * * * * * * * * * * * * * * * * * * * * * * * * * * * * * * * * * * //

7
(
    top
    {
        type            symmetryPlane;
        inGroups        1(symmetryPlane);
        nFaces          448;
        startFace       108164;
    }
    inlet
    {
        type            patch;
        nFaces          0;
        startFace       108612;
    }
    outlet
    {
        type            patch;
        nFaces          0;
        startFace       108612;
    }
    outletConnectMaster
    {
        type            wall;
        inGroups        1(wall);
        nFaces          0;
        startFace       108612;
    }
    walls
    {
        type            wall;
        inGroups        1(wall);
        nFaces          6748;
        startFace       108612;
    }
    procBoundary0to1
    {
        type            processor;
        inGroups        1(processor);
        nFaces          1008;
        startFace       115360;
        matchTolerance  0.0001;
        transform       unknown;
        myProcNo        0;
        neighbProcNo    1;
    }
    procBoundary0to2
    {
        type            processor;
        inGroups        1(processor);
        nFaces          1260;
        startFace       116368;
        matchTolerance  0.0001;
        transform       unknown;
        myProcNo        0;
        neighbProcNo    2;
    }
)

// ************************************************************************* //
