/*--------------------------------*- C++ -*----------------------------------*\
| =========                 |                                                 |
| \\      /  F ield         | OpenFOAM: The Open Source CFD Toolbox           |
|  \\    /   O peration     | Version:  2.3.1                                 |
|   \\  /    A nd           | Web:      www.OpenFOAM.org                      |
|    \\/     M anipulation  |                                                 |
\*---------------------------------------------------------------------------*/
FoamFile
{
    version     2.0;
    format      ascii;
    class       polyBoundaryMesh;
    location    "constant/polyMesh";
    object      boundary;
}
// * * * * * * * * * * * * * * * * * * * * * * * * * * * * * * * * * * * * * //

7
(
    top
    {
        type            symmetryPlane;
        inGroups        1(symmetryPlane);
        nFaces          461;
        startFace       110041;
    }
    inlet
    {
        type            patch;
        nFaces          0;
        startFace       110502;
    }
    outlet
    {
        type            patch;
        nFaces          0;
        startFace       110502;
    }
    outletConnectMaster
    {
        type            wall;
        inGroups        1(wall);
        nFaces          0;
        startFace       110502;
    }
    walls
    {
        type            wall;
        inGroups        1(wall);
        nFaces          6856;
        startFace       110502;
    }
    procBoundary5to4
    {
        type            processor;
        inGroups        1(processor);
        nFaces          1081;
        startFace       117358;
        matchTolerance  0.0001;
        transform       unknown;
        myProcNo        5;
        neighbProcNo    4;
    }
    procBoundary5to7
    {
        type            processor;
        inGroups        1(processor);
        nFaces          1092;
        startFace       118439;
        matchTolerance  0.0001;
        transform       unknown;
        myProcNo        5;
        neighbProcNo    7;
    }
)

// ************************************************************************* //
