/*--------------------------------*- C++ -*----------------------------------*\
| =========                 |                                                 |
| \\      /  F ield         | OpenFOAM: The Open Source CFD Toolbox           |
|  \\    /   O peration     | Version:  2.3.1                                 |
|   \\  /    A nd           | Web:      www.OpenFOAM.org                      |
|    \\/     M anipulation  |                                                 |
\*---------------------------------------------------------------------------*/
FoamFile
{
    version     2.0;
    format      ascii;
    class       polyBoundaryMesh;
    location    "constant/polyMesh";
    object      boundary;
}
// * * * * * * * * * * * * * * * * * * * * * * * * * * * * * * * * * * * * * //

7
(
    top
    {
        type            symmetryPlane;
        inGroups        1(symmetryPlane);
        nFaces          449;
        startFace       107940;
    }
    inlet
    {
        type            patch;
        nFaces          0;
        startFace       108389;
    }
    outlet
    {
        type            patch;
        nFaces          0;
        startFace       108389;
    }
    outletConnectMaster
    {
        type            wall;
        inGroups        1(wall);
        nFaces          0;
        startFace       108389;
    }
    walls
    {
        type            wall;
        inGroups        1(wall);
        nFaces          6745;
        startFace       108389;
    }
    procBoundary6to1
    {
        type            processor;
        inGroups        1(processor);
        nFaces          1031;
        startFace       115134;
        matchTolerance  0.0001;
        transform       unknown;
        myProcNo        6;
        neighbProcNo    1;
    }
    procBoundary6to7
    {
        type            processor;
        inGroups        1(processor);
        nFaces          1075;
        startFace       116165;
        matchTolerance  0.0001;
        transform       unknown;
        myProcNo        6;
        neighbProcNo    7;
    }
)

// ************************************************************************* //
