/*--------------------------------*- C++ -*----------------------------------*\
| =========                 |                                                 |
| \\      /  F ield         | OpenFOAM: The Open Source CFD Toolbox           |
|  \\    /   O peration     | Version:  2.3.1                                 |
|   \\  /    A nd           | Web:      www.OpenFOAM.org                      |
|    \\/     M anipulation  |                                                 |
\*---------------------------------------------------------------------------*/
FoamFile
{
    version     2.0;
    format      ascii;
    class       polyBoundaryMesh;
    location    "constant/polyMesh";
    object      boundary;
}
// * * * * * * * * * * * * * * * * * * * * * * * * * * * * * * * * * * * * * //

6
(
    top
    {
        type            symmetryPlane;
        inGroups        1(symmetryPlane);
        nFaces          444;
        startFace       108641;
    }
    inlet
    {
        type            patch;
        nFaces          288;
        startFace       109085;
    }
    outlet
    {
        type            patch;
        nFaces          0;
        startFace       109373;
    }
    outletConnectMaster
    {
        type            wall;
        inGroups        1(wall);
        nFaces          0;
        startFace       109373;
    }
    walls
    {
        type            wall;
        inGroups        1(wall);
        nFaces          7453;
        startFace       109373;
    }
    procBoundary4to5
    {
        type            processor;
        inGroups        1(processor);
        nFaces          1081;
        startFace       116826;
        matchTolerance  0.0001;
        transform       unknown;
        myProcNo        4;
        neighbProcNo    5;
    }
)

// ************************************************************************* //
